examples/feeders/2_PAL2_1/012_cargasBT_1_1.dss
New Load.BT_205478_M1 bus1=UC205478.1.2.3.4 phases=3 conn=Delta model=2 kv=0.38 kw=2.14421 pf=0.92 daily=RU1_DU status=variable vmaxpu=1.5 vminpu=0.92
New Load.BT_205478_M2 bus1=UC205478.1.2.3.4 phases=3 conn=Delta model=3 kv=0.38 kw=2.14421 pf=0.92 daily=RU1_DU status=variable vmaxpu=1.5 vminpu=0.92
New Load.BT_205479_M1 bus1=UC205479.1.2.3.4 phases=3 conn=Delta model=2 kv=0.38 kw=0.024662 pf=0.92 daily=RU5_DU status=variable vmaxpu=1.5 vminpu=0.92
New Load.BT_205479_M2 bus1=UC205479.1.2.3.4 phases=3 conn=Delta model=3 kv=0.38 kw=0.024662 pf=0.92 daily=RU5_DU status=variable vmaxpu=1.5 vminpu=0.92
New Load.BT_236235_M1 bus1=UC236235.1.2.3.4 phases=3 conn=Delta model=2 kv=0.38 kw=0.4645305 pf=0.92 daily=RU8_DU status=variable vmaxpu=1.5 vminpu=0.92
New Load.BT_236235_M2 bus1=UC236235.1.2.3.4 phases=3 conn=Delta model=3 kv=0.38 kw=0.4645305 pf=0.92 daily=RU8_DU status=variable vmaxpu=1.5 vminpu=0.92
New Load.BT_IP2556_M1 bus1=BT132101.1.4 phases=1 conn=Wye model=2 kv=0.219393102 kw=0.130187 pf=0.92 daily=IP1_DU status=variable vmaxpu=1.5 vminpu=0.92
New Load.BT_IP2556_M2 bus1=BT132101.1.4 phases=1 conn=Wye model=3 kv=0.219393102 kw=0.130187 pf=0.92 daily=IP1_DU status=variable vmaxpu=1.5 vminpu=0.92
New Load.BT_IP2557_M1 bus1=BT41441.1.4 phases=1 conn=Wye model=2 kv=0.219393102 kw=0.130187 pf=0.92 daily=IP1_DU status=variable vmaxpu=1.5 vminpu=0.92
New Load.BT_IP2557_M2 bus1=BT41441.1.4 phases=1 conn=Wye model=3 kv=0.219393102 kw=0.130187 pf=0.92 daily=IP1_DU status=variable vmaxpu=1.5 vminpu=0.92
New Load.BT_IP2558_M1 bus1=ET2_1097.1.4 phases=1 conn=Wye model=2 kv=0.219393102 kw=0.130187 pf=0.92 daily=IP1_DU status=variable vmaxpu=1.5 vminpu=0.92
New Load.BT_IP2558_M2 bus1=ET2_1097.1.4 phases=1 conn=Wye model=3 kv=0.219393102 kw=0.130187 pf=0.92 daily=IP1_DU status=variable vmaxpu=1.5 vminpu=0.92
New Load.BT_IP2559_M1 bus1=BT132121.1.4 phases=1 conn=Wye model=2 kv=0.219393102 kw=0.130187 pf=0.92 daily=IP1_DU status=variable vmaxpu=1.5 vminpu=0.92
New Load.BT_IP2559_M2 bus1=BT132121.1.4 phases=1 conn=Wye model=3 kv=0.219393102 kw=0.130187 pf=0.92 daily=IP1_DU status=variable vmaxpu=1.5 vminpu=0.92
New Load.BT_IP2560_M1 bus1=BT329431.1.4 phases=1 conn=Wye model=2 kv=0.219393102 kw=0.130187 pf=0.92 daily=IP1_DU status=variable vmaxpu=1.5 vminpu=0.92
New Load.BT_IP2560_M2 bus1=BT329431.1.4 phases=1 conn=Wye model=3 kv=0.219393102 kw=0.130187 pf=0.92 daily=IP1_DU status=variable vmaxpu=1.5 vminpu=0.92
New Load.BT_IP2561_M1 bus1=BT750151.1.4 phases=1 conn=Wye model=2 kv=0.219393102 kw=0.260374 pf=0.92 daily=IP1_DU status=variable vmaxpu=1.5 vminpu=0.92
New Load.BT_IP2561_M2 bus1=BT750151.1.4 phases=1 conn=Wye model=3 kv=0.219393102 kw=0.260374 pf=0.92 daily=IP1_DU status=variable vmaxpu=1.5 vminpu=0.92
New Load.BT_IP2562_M1 bus1=BT750161.1.4 phases=1 conn=Wye model=2 kv=0.219393102 kw=0.260374 pf=0.92 daily=IP1_DU status=variable vmaxpu=1.5 vminpu=0.92
New Load.BT_IP2562_M2 bus1=BT750161.1.4 phases=1 conn=Wye model=3 kv=0.219393102 kw=0.260374 pf=0.92 daily=IP1_DU status=variable vmaxpu=1.5 vminpu=0.92
New Load.BT_IP2563_M1 bus1=BT750171.1.4 phases=1 conn=Wye model=2 kv=0.219393102 kw=0.130187 pf=0.92 daily=IP1_DU status=variable vmaxpu=1.5 vminpu=0.92
New Load.BT_IP2563_M2 bus1=BT750171.1.4 phases=1 conn=Wye model=3 kv=0.219393102 kw=0.130187 pf=0.92 daily=IP1_DU status=variable vmaxpu=1.5 vminpu=0.92
New Load.BT_IP2564_M1 bus1=BT750181.1.4 phases=1 conn=Wye model=2 kv=0.219393102 kw=0.130187 pf=0.92 daily=IP1_DU status=variable vmaxpu=1.5 vminpu=0.92
New Load.BT_IP2564_M2 bus1=BT750181.1.4 phases=1 conn=Wye model=3 kv=0.219393102 kw=0.130187 pf=0.92 daily=IP1_DU status=variable vmaxpu=1.5 vminpu=0.92
New Load.BT_IP2565_M1 bus1=BT750191.1.4 phases=1 conn=Wye model=2 kv=0.219393102 kw=0.260374 pf=0.92 daily=IP1_DU status=variable vmaxpu=1.5 vminpu=0.92
New Load.BT_IP2565_M2 bus1=BT750191.1.4 phases=1 conn=Wye model=3 kv=0.219393102 kw=0.260374 pf=0.92 daily=IP1_DU status=variable vmaxpu=1.5 vminpu=0.92
New Load.BT_IP2566_M1 bus1=BT750201.1.4 phases=1 conn=Wye model=2 kv=0.219393102 kw=0.130187 pf=0.92 daily=IP1_DU status=variable vmaxpu=1.5 vminpu=0.92
New Load.BT_IP2566_M2 bus1=BT750201.1.4 phases=1 conn=Wye model=3 kv=0.219393102 kw=0.130187 pf=0.92 daily=IP1_DU status=variable vmaxpu=1.5 vminpu=0.92
New Load.BT_238958_M1 bus1=UC238958.1.4 phases=1 conn=Wye model=2 kv=0.22 kw=0 pf=0.92 daily=RE5_DU status=variable vmaxpu=1.5 vminpu=0.92
New Load.BT_238958_M2 bus1=UC238958.1.4 phases=1 conn=Wye model=3 kv=0.22 kw=0 pf=0.92 daily=RE5_DU status=variable vmaxpu=1.5 vminpu=0.92
New Load.BT_205525_M1 bus1=UC205525.1.4 phases=1 conn=Wye model=2 kv=0.22 kw=0.2684825 pf=0.92 daily=RU4_DU status=variable vmaxpu=1.5 vminpu=0.92
New Load.BT_205525_M2 bus1=UC205525.1.4 phases=1 conn=Wye model=3 kv=0.22 kw=0.2684825 pf=0.92 daily=RU4_DU status=variable vmaxpu=1.5 vminpu=0.92
New Load.BT_219396_M1 bus1=UC219396.1.4 phases=1 conn=Wye model=2 kv=0.22 kw=0.4715475 pf=0.92 daily=RU8_DU status=variable vmaxpu=1.5 vminpu=0.92
New Load.BT_219396_M2 bus1=UC219396.1.4 phases=1 conn=Wye model=3 kv=0.22 kw=0.4715475 pf=0.92 daily=RU8_DU status=variable vmaxpu=1.5 vminpu=0.92
New Load.BT_205483_M1 bus1=UC205483.1.2.3.4 phases=3 conn=Delta model=2 kv=0.38 kw=1.08021 pf=0.92 daily=RU5_DU status=variable vmaxpu=1.5 vminpu=0.92
New Load.BT_205483_M2 bus1=UC205483.1.2.3.4 phases=3 conn=Delta model=3 kv=0.38 kw=1.08021 pf=0.92 daily=RU5_DU status=variable vmaxpu=1.5 vminpu=0.92
New Load.BT_228383_M1 bus1=UC228383.1.4 phases=1 conn=Wye model=2 kv=0.22 kw=0 pf=0.92 daily=RU4_DU status=variable vmaxpu=1.5 vminpu=0.92
New Load.BT_228383_M2 bus1=UC228383.1.4 phases=1 conn=Wye model=3 kv=0.22 kw=0 pf=0.92 daily=RU4_DU status=variable vmaxpu=1.5 vminpu=0.92
New Load.BT_205480_M1 bus1=UC205480.1.2.3.4 phases=3 conn=Delta model=2 kv=0.38 kw=1.1768295 pf=0.92 daily=RU7_DU status=variable vmaxpu=1.5 vminpu=0.92
New Load.BT_205480_M2 bus1=UC205480.1.2.3.4 phases=3 conn=Delta model=3 kv=0.38 kw=1.1768295 pf=0.92 daily=RU7_DU status=variable vmaxpu=1.5 vminpu=0.92
New Load.BT_205485_M1 bus1=UC205485.1.2.3.4 phases=3 conn=Delta model=2 kv=0.38 kw=0.9457815 pf=0.92 daily=RU2_DU status=variable vmaxpu=1.5 vminpu=0.92
New Load.BT_205485_M2 bus1=UC205485.1.2.3.4 phases=3 conn=Delta model=3 kv=0.38 kw=0.9457815 pf=0.92 daily=RU2_DU status=variable vmaxpu=1.5 vminpu=0.92
New Load.BT_IP1065_M1 bus1=ET2_1186.1.4 phases=1 conn=Wye model=2 kv=0.219393102 kw=0.0801295 pf=0.92 daily=IP1_DU status=variable vmaxpu=1.5 vminpu=0.92
New Load.BT_IP1065_M2 bus1=ET2_1186.1.4 phases=1 conn=Wye model=3 kv=0.219393102 kw=0.0801295 pf=0.92 daily=IP1_DU status=variable vmaxpu=1.5 vminpu=0.92
New Load.BT_205506_M1 bus1=UC205506.1.2.3.4 phases=3 conn=Delta model=2 kv=0.38 kw=1.118513 pf=0.92 daily=RU1_DU status=variable vmaxpu=1.5 vminpu=0.92
New Load.BT_205506_M2 bus1=UC205506.1.2.3.4 phases=3 conn=Delta model=3 kv=0.38 kw=1.118513 pf=0.92 daily=RU1_DU status=variable vmaxpu=1.5 vminpu=0.92
New Load.BT_218341_M1 bus1=UC218341.1.4 phases=1 conn=Wye model=2 kv=0.219393102 kw=0.6052955 pf=0.92 daily=RU7_DU status=variable vmaxpu=1.5 vminpu=0.92
New Load.BT_218341_M2 bus1=UC218341.1.4 phases=1 conn=Wye model=3 kv=0.219393102 kw=0.6052955 pf=0.92 daily=RU7_DU status=variable vmaxpu=1.5 vminpu=0.92
New Load.BT_221298_M1 bus1=UC221298.1.4 phases=1 conn=Wye model=2 kv=0.219393102 kw=0.531473 pf=0.92 daily=RU5_DU status=variable vmaxpu=1.5 vminpu=0.92
New Load.BT_221298_M2 bus1=UC221298.1.4 phases=1 conn=Wye model=3 kv=0.219393102 kw=0.531473 pf=0.92 daily=RU5_DU status=variable vmaxpu=1.5 vminpu=0.92
New Load.BT_221684_M1 bus1=UC221684.1.4 phases=1 conn=Wye model=2 kv=0.22 kw=0.0039615 pf=0.92 daily=CO3_DU status=variable vmaxpu=1.5 vminpu=0.92
New Load.BT_221684_M2 bus1=UC221684.1.4 phases=1 conn=Wye model=3 kv=0.22 kw=0.0039615 pf=0.92 daily=CO3_DU status=variable vmaxpu=1.5 vminpu=0.92
New Load.BT_205593_M1 bus1=UC205593.1.4 phases=1 conn=Wye model=2 kv=0.22 kw=0.8283625 pf=0.92 daily=RU7_DU status=variable vmaxpu=1.5 vminpu=0.92
New Load.BT_205593_M2 bus1=UC205593.1.4 phases=1 conn=Wye model=3 kv=0.22 kw=0.8283625 pf=0.92 daily=RU7_DU status=variable vmaxpu=1.5 vminpu=0.92
New Load.BT_205595_M1 bus1=UC205595.1.4 phases=1 conn=Wye model=2 kv=0.22 kw=0.6524695 pf=0.92 daily=RU2_DU status=variable vmaxpu=1.5 vminpu=0.92
New Load.BT_205595_M2 bus1=UC205595.1.4 phases=1 conn=Wye model=3 kv=0.22 kw=0.6524695 pf=0.92 daily=RU2_DU status=variable vmaxpu=1.5 vminpu=0.92
New Load.BT_205609_M1 bus1=UC205609.1.2.3.4 phases=3 conn=Delta model=2 kv=0.38 kw=0.134729 pf=0.92 daily=RU3_DU status=variable vmaxpu=1.5 vminpu=0.92
New Load.BT_205609_M2 bus1=UC205609.1.2.3.4 phases=3 conn=Delta model=3 kv=0.38 kw=0.134729 pf=0.92 daily=RU3_DU status=variable vmaxpu=1.5 vminpu=0.92
New Load.BT_205610_M1 bus1=UC205610.1.4 phases=1 conn=Wye model=2 kv=0.219393102 kw=0.2049805 pf=0.92 daily=RU7_DU status=variable vmaxpu=1.5 vminpu=0.92
New Load.BT_205610_M2 bus1=UC205610.1.4 phases=1 conn=Wye model=3 kv=0.219393102 kw=0.2049805 pf=0.92 daily=RU7_DU status=variable vmaxpu=1.5 vminpu=0.92
New Load.BT_205611_M1 bus1=UC205611.1.2.3.4 phases=3 conn=Delta model=2 kv=0.38 kw=0.173869 pf=0.92 daily=RU5_DU status=variable vmaxpu=1.5 vminpu=0.92
New Load.BT_205611_M2 bus1=UC205611.1.2.3.4 phases=3 conn=Delta model=3 kv=0.38 kw=0.173869 pf=0.92 daily=RU5_DU status=variable vmaxpu=1.5 vminpu=0.92
New Load.BT_205612_M1 bus1=UC205612.1.2.3.4 phases=3 conn=Delta model=2 kv=0.38 kw=0.4357635 pf=0.92 daily=RU1_DU status=variable vmaxpu=1.5 vminpu=0.92
New Load.BT_205612_M2 bus1=UC205612.1.2.3.4 phases=3 conn=Delta model=3 kv=0.38 kw=0.4357635 pf=0.92 daily=RU1_DU status=variable vmaxpu=1.5 vminpu=0.92
New Load.BT_228122_M1 bus1=UC228122.1.4 phases=1 conn=Wye model=2 kv=0.219393102 kw=0.3468285 pf=0.92 daily=RU6_DU status=variable vmaxpu=1.5 vminpu=0.92
New Load.BT_228122_M2 bus1=UC228122.1.4 phases=1 conn=Wye model=3 kv=0.219393102 kw=0.3468285 pf=0.92 daily=RU6_DU status=variable vmaxpu=1.5 vminpu=0.92
New Load.BT_234956_M1 bus1=UC234956.1.2.3.4 phases=3 conn=Delta model=2 kv=0.38 kw=0.031925 pf=0.92 daily=RU2_DU status=variable vmaxpu=1.5 vminpu=0.92
New Load.BT_234956_M2 bus1=UC234956.1.2.3.4 phases=3 conn=Delta model=3 kv=0.38 kw=0.031925 pf=0.92 daily=RU2_DU status=variable vmaxpu=1.5 vminpu=0.92
New Load.BT_205608_M1 bus1=UC205608.1.2.3.4 phases=3 conn=Delta model=2 kv=0.38 kw=1.393592 pf=0.92 daily=RU8_DU status=variable vmaxpu=1.5 vminpu=0.92
New Load.BT_205608_M2 bus1=UC205608.1.2.3.4 phases=3 conn=Delta model=3 kv=0.38 kw=1.393592 pf=0.92 daily=RU8_DU status=variable vmaxpu=1.5 vminpu=0.92
New Load.BT_205606_M1 bus1=UC205606.2.4 phases=1 conn=Wye model=2 kv=0.22 kw=0.22789 pf=0.92 daily=RU7_DU status=variable vmaxpu=1.5 vminpu=0.92
New Load.BT_205606_M2 bus1=UC205606.2.4 phases=1 conn=Wye model=3 kv=0.22 kw=0.22789 pf=0.92 daily=RU7_DU status=variable vmaxpu=1.5 vminpu=0.92
New Load.BT_227941_M1 bus1=UC227941.2.4 phases=1 conn=Wye model=2 kv=0.22 kw=0.2098035 pf=0.92 daily=RU7_DU status=variable vmaxpu=1.5 vminpu=0.92
New Load.BT_227941_M2 bus1=UC227941.2.4 phases=1 conn=Wye model=3 kv=0.22 kw=0.2098035 pf=0.92 daily=RU7_DU status=variable vmaxpu=1.5 vminpu=0.92
New Load.BT_225288_M1 bus1=UC225288.1.4 phases=1 conn=Wye model=2 kv=0.22 kw=0.270092 pf=0.92 daily=RU7_DU status=variable vmaxpu=1.5 vminpu=0.92
New Load.BT_225288_M2 bus1=UC225288.1.4 phases=1 conn=Wye model=3 kv=0.22 kw=0.270092 pf=0.92 daily=RU7_DU status=variable vmaxpu=1.5 vminpu=0.92
New Load.BT_225848_M1 bus1=UC225848.1.4 phases=1 conn=Wye model=2 kv=0.22 kw=0.004119 pf=0.92 daily=CO2_DU status=variable vmaxpu=1.5 vminpu=0.92
New Load.BT_225848_M2 bus1=UC225848.1.4 phases=1 conn=Wye model=3 kv=0.22 kw=0.004119 pf=0.92 daily=CO2_DU status=variable vmaxpu=1.5 vminpu=0.92
New Load.BT_225295_M1 bus1=UC225295.2.4 phases=1 conn=Wye model=2 kv=0.22 kw=0.1844825 pf=0.92 daily=RU7_DU status=variable vmaxpu=1.5 vminpu=0.92
New Load.BT_225295_M2 bus1=UC225295.2.4 phases=1 conn=Wye model=3 kv=0.22 kw=0.1844825 pf=0.92 daily=RU7_DU status=variable vmaxpu=1.5 vminpu=0.92
New Load.BT_205493_M1 bus1=UC205493.1.4 phases=1 conn=Wye model=2 kv=0.22 kw=0.267436 pf=0.92 daily=RU1_DU status=variable vmaxpu=1.5 vminpu=0.92
New Load.BT_205493_M2 bus1=UC205493.1.4 phases=1 conn=Wye model=3 kv=0.22 kw=0.267436 pf=0.92 daily=RU1_DU status=variable vmaxpu=1.5 vminpu=0.92
New Load.BT_205605_M1 bus1=UC205605.1.2.4 phases=1 conn=Delta model=2 kv=0.44 kw=0.5721625 pf=0.92 daily=RU3_DU status=variable vmaxpu=1.5 vminpu=0.92
New Load.BT_205605_M2 bus1=UC205605.1.2.4 phases=1 conn=Delta model=3 kv=0.44 kw=0.5721625 pf=0.92 daily=RU3_DU status=variable vmaxpu=1.5 vminpu=0.92
New Load.BT_205521_M1 bus1=UC205521.1.4 phases=1 conn=Wye model=2 kv=0.22 kw=0.5922415 pf=0.92 daily=RU8_DU status=variable vmaxpu=1.5 vminpu=0.92
New Load.BT_205521_M2 bus1=UC205521.1.4 phases=1 conn=Wye model=3 kv=0.22 kw=0.5922415 pf=0.92 daily=RU8_DU status=variable vmaxpu=1.5 vminpu=0.92
New Load.BT_205466_M1 bus1=UC205466.1.2.3.4 phases=3 conn=Delta model=2 kv=0.38 kw=1.881736 pf=0.92 daily=RU5_DU status=variable vmaxpu=1.5 vminpu=0.92
New Load.BT_205466_M2 bus1=UC205466.1.2.3.4 phases=3 conn=Delta model=3 kv=0.38 kw=1.881736 pf=0.92 daily=RU5_DU status=variable vmaxpu=1.5 vminpu=0.92
New Load.BT_205467_M1 bus1=UC205467.1.2.3.4 phases=3 conn=Delta model=2 kv=0.38 kw=0.141617 pf=0.92 daily=RU4_DU status=variable vmaxpu=1.5 vminpu=0.92
New Load.BT_205467_M2 bus1=UC205467.1.2.3.4 phases=3 conn=Delta model=3 kv=0.38 kw=0.141617 pf=0.92 daily=RU4_DU status=variable vmaxpu=1.5 vminpu=0.92
New Load.BT_IP8001_M1 bus1=ET2_1423.1.4 phases=1 conn=Wye model=2 kv=0.219393102 kw=0.070043 pf=0.92 daily=IP1_DU status=variable vmaxpu=1.5 vminpu=0.92
New Load.BT_IP8001_M2 bus1=ET2_1423.1.4 phases=1 conn=Wye model=3 kv=0.219393102 kw=0.070043 pf=0.92 daily=IP1_DU status=variable vmaxpu=1.5 vminpu=0.92
New Load.BT_205507_M1 bus1=UC205507.1.4 phases=1 conn=Wye model=2 kv=0.22 kw=0.098239 pf=0.92 daily=RU8_DU status=variable vmaxpu=1.5 vminpu=0.92
New Load.BT_205507_M2 bus1=UC205507.1.4 phases=1 conn=Wye model=3 kv=0.22 kw=0.098239 pf=0.92 daily=RU8_DU status=variable vmaxpu=1.5 vminpu=0.92
New Load.BT_205563_M1 bus1=UC205563.1.4 phases=1 conn=Wye model=2 kv=0.22 kw=0.334374 pf=0.92 daily=RU4_DU status=variable vmaxpu=1.5 vminpu=0.92
New Load.BT_205563_M2 bus1=UC205563.1.4 phases=1 conn=Wye model=3 kv=0.22 kw=0.334374 pf=0.92 daily=RU4_DU status=variable vmaxpu=1.5 vminpu=0.92
New Load.BT_205564_M1 bus1=UC205564.1.4 phases=1 conn=Wye model=2 kv=0.22 kw=0.6569465 pf=0.92 daily=RU4_DU status=variable vmaxpu=1.5 vminpu=0.92
New Load.BT_205564_M2 bus1=UC205564.1.4 phases=1 conn=Wye model=3 kv=0.22 kw=0.6569465 pf=0.92 daily=RU4_DU status=variable vmaxpu=1.5 vminpu=0.92
New Load.BT_223651_M1 bus1=UC223651.1.4 phases=1 conn=Wye model=2 kv=0.22 kw=0.2940525 pf=0.92 daily=RU4_DU status=variable vmaxpu=1.5 vminpu=0.92
New Load.BT_223651_M2 bus1=UC223651.1.4 phases=1 conn=Wye model=3 kv=0.22 kw=0.2940525 pf=0.92 daily=RU4_DU status=variable vmaxpu=1.5 vminpu=0.92
New Load.BT_233878_M1 bus1=UC233878.1.4 phases=1 conn=Wye model=2 kv=0.22 kw=0.4715475 pf=0.92 daily=RU8_DU status=variable vmaxpu=1.5 vminpu=0.92
New Load.BT_233878_M2 bus1=UC233878.1.4 phases=1 conn=Wye model=3 kv=0.22 kw=0.4715475 pf=0.92 daily=RU8_DU status=variable vmaxpu=1.5 vminpu=0.92
New Load.BT_226210_M1 bus1=UC226210.2.4 phases=1 conn=Wye model=2 kv=0.22 kw=0.64388 pf=0.92 daily=RU7_DU status=variable vmaxpu=1.5 vminpu=0.92
New Load.BT_226210_M2 bus1=UC226210.2.4 phases=1 conn=Wye model=3 kv=0.22 kw=0.64388 pf=0.92 daily=RU7_DU status=variable vmaxpu=1.5 vminpu=0.92
New Load.BT_205555_M1 bus1=UC205555.2.4 phases=1 conn=Wye model=2 kv=0.22 kw=0.586138 pf=0.92 daily=RU4_DU status=variable vmaxpu=1.5 vminpu=0.92
New Load.BT_205555_M2 bus1=UC205555.2.4 phases=1 conn=Wye model=3 kv=0.22 kw=0.586138 pf=0.92 daily=RU4_DU status=variable vmaxpu=1.5 vminpu=0.92
New Load.BT_205492_M1 bus1=UC205492.1.2.3.4 phases=3 conn=Delta model=2 kv=0.38 kw=0.8206245 pf=0.92 daily=RU3_DU status=variable vmaxpu=1.5 vminpu=0.92
New Load.BT_205492_M2 bus1=UC205492.1.2.3.4 phases=3 conn=Delta model=3 kv=0.38 kw=0.8206245 pf=0.92 daily=RU3_DU status=variable vmaxpu=1.5 vminpu=0.92
New Load.BT_217017_M1 bus1=UC217017.1.4 phases=1 conn=Wye model=2 kv=0.219393102 kw=1.1712525 pf=0.92 daily=RU2_DU status=variable vmaxpu=1.5 vminpu=0.92
New Load.BT_217017_M2 bus1=UC217017.1.4 phases=1 conn=Wye model=3 kv=0.219393102 kw=1.1712525 pf=0.92 daily=RU2_DU status=variable vmaxpu=1.5 vminpu=0.92
New Load.BT_226800_M1 bus1=UC226800.1.2.3.4 phases=3 conn=Delta model=2 kv=0.38 kw=3.6797575 pf=0.92 daily=RU8_DU status=variable vmaxpu=1.5 vminpu=0.92
New Load.BT_226800_M2 bus1=UC226800.1.2.3.4 phases=3 conn=Delta model=3 kv=0.38 kw=3.6797575 pf=0.92 daily=RU8_DU status=variable vmaxpu=1.5 vminpu=0.92
New Load.BT_205512_M1 bus1=UC205512.1.4 phases=1 conn=Wye model=2 kv=0.22 kw=0.191717 pf=0.92 daily=RU7_DU status=variable vmaxpu=1.5 vminpu=0.92
New Load.BT_205512_M2 bus1=UC205512.1.4 phases=1 conn=Wye model=3 kv=0.22 kw=0.191717 pf=0.92 daily=RU7_DU status=variable vmaxpu=1.5 vminpu=0.92
New Load.BT_205578_M1 bus1=UC205578.1.2.3.4 phases=3 conn=Delta model=2 kv=0.38 kw=1.6314135 pf=0.92 daily=RU5_DU status=variable vmaxpu=1.5 vminpu=0.92
New Load.BT_205578_M2 bus1=UC205578.1.2.3.4 phases=3 conn=Delta model=3 kv=0.38 kw=1.6314135 pf=0.92 daily=RU5_DU status=variable vmaxpu=1.5 vminpu=0.92
New Load.BT_205569_M1 bus1=UC205569.1.2.4 phases=1 conn=Delta model=2 kv=0.44 kw=0.294207 pf=0.92 daily=RU7_DU status=variable vmaxpu=1.5 vminpu=0.92
New Load.BT_205569_M2 bus1=UC205569.1.2.4 phases=1 conn=Delta model=3 kv=0.44 kw=0.294207 pf=0.92 daily=RU7_DU status=variable vmaxpu=1.5 vminpu=0.92
New Load.BT_226234_M1 bus1=UC226234.1.4 phases=1 conn=Wye model=2 kv=0.22 kw=0 pf=0.92 daily=RU4_DU status=variable vmaxpu=1.5 vminpu=0.92
New Load.BT_226234_M2 bus1=UC226234.1.4 phases=1 conn=Wye model=3 kv=0.22 kw=0 pf=0.92 daily=RU4_DU status=variable vmaxpu=1.5 vminpu=0.92
New Load.BT_227074_M1 bus1=UC227074.1.4 phases=1 conn=Wye model=2 kv=0.22 kw=0.3785665 pf=0.92 daily=RU5_DU status=variable vmaxpu=1.5 vminpu=0.92
New Load.BT_227074_M2 bus1=UC227074.1.4 phases=1 conn=Wye model=3 kv=0.22 kw=0.3785665 pf=0.92 daily=RU5_DU status=variable vmaxpu=1.5 vminpu=0.92
New Load.BT_217001_M1 bus1=UC217001.1.4 phases=1 conn=Wye model=2 kv=0.22 kw=0.4135785 pf=0.92 daily=RU7_DU status=variable vmaxpu=1.5 vminpu=0.92
New Load.BT_217001_M2 bus1=UC217001.1.4 phases=1 conn=Wye model=3 kv=0.22 kw=0.4135785 pf=0.92 daily=RU7_DU status=variable vmaxpu=1.5 vminpu=0.92
New Load.BT_205534_M1 bus1=UC205534.2.4 phases=1 conn=Wye model=2 kv=0.22 kw=0.3314235 pf=0.92 daily=RU4_DU status=variable vmaxpu=1.5 vminpu=0.92
New Load.BT_205534_M2 bus1=UC205534.2.4 phases=1 conn=Wye model=3 kv=0.22 kw=0.3314235 pf=0.92 daily=RU4_DU status=variable vmaxpu=1.5 vminpu=0.92
New Load.BT_205503_M1 bus1=UC205503.1.4 phases=1 conn=Wye model=2 kv=0.22 kw=1.043552 pf=0.92 daily=RU2_DU status=variable vmaxpu=1.5 vminpu=0.92
New Load.BT_205503_M2 bus1=UC205503.1.4 phases=1 conn=Wye model=3 kv=0.22 kw=1.043552 pf=0.92 daily=RU2_DU status=variable vmaxpu=1.5 vminpu=0.92
New Load.BT_205457_M1 bus1=UC205457.1.2.3.4 phases=3 conn=Delta model=2 kv=0.38 kw=0 pf=0.92 daily=RU4_DU status=variable vmaxpu=1.5 vminpu=0.92
New Load.BT_205457_M2 bus1=UC205457.1.2.3.4 phases=3 conn=Delta model=3 kv=0.38 kw=0 pf=0.92 daily=RU4_DU status=variable vmaxpu=1.5 vminpu=0.92
New Load.BT_205458_M1 bus1=UC205458.1.2.3.4 phases=3 conn=Delta model=2 kv=0.38 kw=0.0061655 pf=0.92 daily=RU5_DU status=variable vmaxpu=1.5 vminpu=0.92
New Load.BT_205458_M2 bus1=UC205458.1.2.3.4 phases=3 conn=Delta model=3 kv=0.38 kw=0.0061655 pf=0.92 daily=RU5_DU status=variable vmaxpu=1.5 vminpu=0.92
New Load.BT_205538_M1 bus1=UC205538.1.4 phases=1 conn=Wye model=2 kv=0.22 kw=0.3366405 pf=0.92 daily=RU5_DU status=variable vmaxpu=1.5 vminpu=0.92
New Load.BT_205538_M2 bus1=UC205538.1.4 phases=1 conn=Wye model=3 kv=0.22 kw=0.3366405 pf=0.92 daily=RU5_DU status=variable vmaxpu=1.5 vminpu=0.92
New Load.BT_205539_M1 bus1=UC205539.2.4 phases=1 conn=Wye model=2 kv=0.22 kw=0.208028 pf=0.92 daily=CO2_DU status=variable vmaxpu=1.5 vminpu=0.92
New Load.BT_205539_M2 bus1=UC205539.2.4 phases=1 conn=Wye model=3 kv=0.22 kw=0.208028 pf=0.92 daily=CO2_DU status=variable vmaxpu=1.5 vminpu=0.92
New Load.BT_205772_M1 bus1=UC205772.2.4 phases=1 conn=Wye model=2 kv=0.22 kw=0.0878605 pf=0.92 daily=PP4_DU status=variable vmaxpu=1.5 vminpu=0.92
New Load.BT_205772_M2 bus1=UC205772.2.4 phases=1 conn=Wye model=3 kv=0.22 kw=0.0878605 pf=0.92 daily=PP4_DU status=variable vmaxpu=1.5 vminpu=0.92
New Load.BT_205462_M1 bus1=UC205462.1.2.3.4 phases=3 conn=Delta model=2 kv=0.38 kw=1.2310895 pf=0.92 daily=RU7_DU status=variable vmaxpu=1.5 vminpu=0.92
New Load.BT_205462_M2 bus1=UC205462.1.2.3.4 phases=3 conn=Delta model=3 kv=0.38 kw=1.2310895 pf=0.92 daily=RU7_DU status=variable vmaxpu=1.5 vminpu=0.92
New Load.BT_205463_M1 bus1=UC205463.1.2.3.4 phases=3 conn=Delta model=2 kv=0.38 kw=1.9629725 pf=0.92 daily=RU4_DU status=variable vmaxpu=1.5 vminpu=0.92
New Load.BT_205463_M2 bus1=UC205463.1.2.3.4 phases=3 conn=Delta model=3 kv=0.38 kw=1.9629725 pf=0.92 daily=RU4_DU status=variable vmaxpu=1.5 vminpu=0.92
New Load.BT_205464_M1 bus1=UC205464.1.2.3.4 phases=3 conn=Delta model=2 kv=0.38 kw=2.9810075 pf=0.92 daily=RU2_DU status=variable vmaxpu=1.5 vminpu=0.92
New Load.BT_205464_M2 bus1=UC205464.1.2.3.4 phases=3 conn=Delta model=3 kv=0.38 kw=2.9810075 pf=0.92 daily=RU2_DU status=variable vmaxpu=1.5 vminpu=0.92
New Load.BT_205465_M1 bus1=UC205465.1.2.3.4 phases=3 conn=Delta model=2 kv=0.38 kw=0.8518475 pf=0.92 daily=RE2_DU status=variable vmaxpu=1.5 vminpu=0.92
New Load.BT_205465_M2 bus1=UC205465.1.2.3.4 phases=3 conn=Delta model=3 kv=0.38 kw=0.8518475 pf=0.92 daily=RE2_DU status=variable vmaxpu=1.5 vminpu=0.92
New Load.BT_205468_M1 bus1=UC205468.1.2.3.4 phases=3 conn=Delta model=2 kv=0.38 kw=0.001233 pf=0.92 daily=RU5_DU status=variable vmaxpu=1.5 vminpu=0.92
New Load.BT_205468_M2 bus1=UC205468.1.2.3.4 phases=3 conn=Delta model=3 kv=0.38 kw=0.001233 pf=0.92 daily=RU5_DU status=variable vmaxpu=1.5 vminpu=0.92
New Load.BT_205535_M1 bus1=UC205535.1.4 phases=1 conn=Wye model=2 kv=0.22 kw=0.1603025 pf=0.92 daily=RU4_DU status=variable vmaxpu=1.5 vminpu=0.92
New Load.BT_205535_M2 bus1=UC205535.1.4 phases=1 conn=Wye model=3 kv=0.22 kw=0.1603025 pf=0.92 daily=RU4_DU status=variable vmaxpu=1.5 vminpu=0.92
New Load.BT_205779_M1 bus1=UC205779.2.4 phases=1 conn=Wye model=2 kv=0.22 kw=0.763299 pf=0.92 daily=RU5_DU status=variable vmaxpu=1.5 vminpu=0.92
New Load.BT_205779_M2 bus1=UC205779.2.4 phases=1 conn=Wye model=3 kv=0.22 kw=0.763299 pf=0.92 daily=RU5_DU status=variable vmaxpu=1.5 vminpu=0.92
New Load.BT_219378_M1 bus1=UC219378.1.4 phases=1 conn=Wye model=2 kv=0.22 kw=0.0059425 pf=0.92 daily=CO3_DU status=variable vmaxpu=1.5 vminpu=0.92
New Load.BT_219378_M2 bus1=UC219378.1.4 phases=1 conn=Wye model=3 kv=0.22 kw=0.0059425 pf=0.92 daily=CO3_DU status=variable vmaxpu=1.5 vminpu=0.92
New Load.BT_205543_M1 bus1=UC205543.1.4 phases=1 conn=Wye model=2 kv=0.22 kw=0.440903 pf=0.92 daily=RU6_DU status=variable vmaxpu=1.5 vminpu=0.92
New Load.BT_205543_M2 bus1=UC205543.1.4 phases=1 conn=Wye model=3 kv=0.22 kw=0.440903 pf=0.92 daily=RU6_DU status=variable vmaxpu=1.5 vminpu=0.92
New Load.BT_205545_M1 bus1=UC205545.2.4 phases=1 conn=Wye model=2 kv=0.22 kw=0.3173595 pf=0.92 daily=RU6_DU status=variable vmaxpu=1.5 vminpu=0.92
New Load.BT_205545_M2 bus1=UC205545.2.4 phases=1 conn=Wye model=3 kv=0.22 kw=0.3173595 pf=0.92 daily=RU6_DU status=variable vmaxpu=1.5 vminpu=0.92
New Load.BT_234136_M1 bus1=UC234136.2.4 phases=1 conn=Wye model=2 kv=0.22 kw=0.0158675 pf=0.92 daily=RU6_DU status=variable vmaxpu=1.5 vminpu=0.92
New Load.BT_234136_M2 bus1=UC234136.2.4 phases=1 conn=Wye model=3 kv=0.22 kw=0.0158675 pf=0.92 daily=RU6_DU status=variable vmaxpu=1.5 vminpu=0.92
New Load.BT_205471_M1 bus1=UC205471.1.2.3.4 phases=3 conn=Delta model=2 kv=0.38 kw=1.9693805 pf=0.92 daily=RU2_DU status=variable vmaxpu=1.5 vminpu=0.92
New Load.BT_205471_M2 bus1=UC205471.1.2.3.4 phases=3 conn=Delta model=3 kv=0.38 kw=1.9693805 pf=0.92 daily=RU2_DU status=variable vmaxpu=1.5 vminpu=0.92
New Load.BT_205472_M1 bus1=UC205472.1.2.3.4 phases=3 conn=Delta model=2 kv=0.38 kw=0.7901465 pf=0.92 daily=RU2_DU status=variable vmaxpu=1.5 vminpu=0.92
New Load.BT_205472_M2 bus1=UC205472.1.2.3.4 phases=3 conn=Delta model=3 kv=0.38 kw=0.7901465 pf=0.92 daily=RU2_DU status=variable vmaxpu=1.5 vminpu=0.92
New Load.BT_205473_M1 bus1=UC205473.1.2.3.4 phases=3 conn=Delta model=2 kv=0.38 kw=1.5643305 pf=0.92 daily=RU2_DU status=variable vmaxpu=1.5 vminpu=0.92
New Load.BT_205473_M2 bus1=UC205473.1.2.3.4 phases=3 conn=Delta model=3 kv=0.38 kw=1.5643305 pf=0.92 daily=RU2_DU status=variable vmaxpu=1.5 vminpu=0.92
New Load.BT_231256_M1 bus1=UC231256.1.2.4 phases=1 conn=Delta model=2 kv=0.38 kw=0.4928435 pf=0.92 daily=RU2_DU status=variable vmaxpu=1.5 vminpu=0.92
New Load.BT_231256_M2 bus1=UC231256.1.2.4 phases=1 conn=Delta model=3 kv=0.38 kw=0.4928435 pf=0.92 daily=RU2_DU status=variable vmaxpu=1.5 vminpu=0.92
New Load.BT_221673_M1 bus1=UC221673.1.4 phases=1 conn=Wye model=2 kv=0.22 kw=0.385365 pf=0.92 daily=RU6_DU status=variable vmaxpu=1.5 vminpu=0.92
New Load.BT_221673_M2 bus1=UC221673.1.4 phases=1 conn=Wye model=3 kv=0.22 kw=0.385365 pf=0.92 daily=RU6_DU status=variable vmaxpu=1.5 vminpu=0.92
New Load.BT_205781_M1 bus1=UC205781.1.4 phases=1 conn=Wye model=2 kv=0.22 kw=0.444956 pf=0.92 daily=RU2_DU status=variable vmaxpu=1.5 vminpu=0.92
New Load.BT_205781_M2 bus1=UC205781.1.4 phases=1 conn=Wye model=3 kv=0.22 kw=0.444956 pf=0.92 daily=RU2_DU status=variable vmaxpu=1.5 vminpu=0.92
New Load.BT_205489_M1 bus1=UC205489.1.4 phases=1 conn=Wye model=2 kv=0.22 kw=0.9438925 pf=0.92 daily=RU1_DU status=variable vmaxpu=1.5 vminpu=0.92
New Load.BT_205489_M2 bus1=UC205489.1.4 phases=1 conn=Wye model=3 kv=0.22 kw=0.9438925 pf=0.92 daily=RU1_DU status=variable vmaxpu=1.5 vminpu=0.92
New Load.BT_205490_M1 bus1=UC205490.2.4 phases=1 conn=Wye model=2 kv=0.22 kw=0.6497125 pf=0.92 daily=RU1_DU status=variable vmaxpu=1.5 vminpu=0.92
New Load.BT_205490_M2 bus1=UC205490.2.4 phases=1 conn=Wye model=3 kv=0.22 kw=0.6497125 pf=0.92 daily=RU1_DU status=variable vmaxpu=1.5 vminpu=0.92
New Load.BT_234526_M1 bus1=UC234526.2.4 phases=1 conn=Wye model=2 kv=0.22 kw=0.337615 pf=0.92 daily=RU7_DU status=variable vmaxpu=1.5 vminpu=0.92
New Load.BT_234526_M2 bus1=UC234526.2.4 phases=1 conn=Wye model=3 kv=0.22 kw=0.337615 pf=0.92 daily=RU7_DU status=variable vmaxpu=1.5 vminpu=0.92
New Load.BT_234133_M1 bus1=UC234133.1.4 phases=1 conn=Wye model=2 kv=0.22 kw=0.3471855 pf=0.92 daily=RU2_DU status=variable vmaxpu=1.5 vminpu=0.92
New Load.BT_234133_M2 bus1=UC234133.1.4 phases=1 conn=Wye model=3 kv=0.22 kw=0.3471855 pf=0.92 daily=RU2_DU status=variable vmaxpu=1.5 vminpu=0.92
New Load.BT_225294_M1 bus1=UC225294.1.4 phases=1 conn=Wye model=2 kv=0.22 kw=0.2568285 pf=0.92 daily=RU7_DU status=variable vmaxpu=1.5 vminpu=0.92
New Load.BT_225294_M2 bus1=UC225294.1.4 phases=1 conn=Wye model=3 kv=0.22 kw=0.2568285 pf=0.92 daily=RU7_DU status=variable vmaxpu=1.5 vminpu=0.92
New Load.BT_206079_M1 bus1=UC206079.1.4 phases=1 conn=Wye model=2 kv=0.22 kw=0.4150265 pf=0.92 daily=RU2_DU status=variable vmaxpu=1.5 vminpu=0.92
New Load.BT_206079_M2 bus1=UC206079.1.4 phases=1 conn=Wye model=3 kv=0.22 kw=0.4150265 pf=0.92 daily=RU2_DU status=variable vmaxpu=1.5 vminpu=0.92
New Load.BT_205590_M1 bus1=UC205590.1.4 phases=1 conn=Wye model=2 kv=0.22 kw=0.180222 pf=0.92 daily=RU3_DU status=variable vmaxpu=1.5 vminpu=0.92
New Load.BT_205590_M2 bus1=UC205590.1.4 phases=1 conn=Wye model=3 kv=0.22 kw=0.180222 pf=0.92 daily=RU3_DU status=variable vmaxpu=1.5 vminpu=0.92
New Load.BT_205557_M1 bus1=UC205557.1.2.3.4 phases=3 conn=Delta model=2 kv=0.38 kw=1.4415135 pf=0.92 daily=RU5_DU status=variable vmaxpu=1.5 vminpu=0.92
New Load.BT_205557_M2 bus1=UC205557.1.2.3.4 phases=3 conn=Delta model=3 kv=0.38 kw=1.4415135 pf=0.92 daily=RU5_DU status=variable vmaxpu=1.5 vminpu=0.92
New Load.BT_225850_M1 bus1=UC225850.2.4 phases=1 conn=Wye model=2 kv=0.219393102 kw=0.6784085 pf=0.92 daily=RU2_DU status=variable vmaxpu=1.5 vminpu=0.92
New Load.BT_225850_M2 bus1=UC225850.2.4 phases=1 conn=Wye model=3 kv=0.219393102 kw=0.6784085 pf=0.92 daily=RU2_DU status=variable vmaxpu=1.5 vminpu=0.92
New Load.BT_227072_M1 bus1=UC227072.1.4 phases=1 conn=Wye model=2 kv=0.219393102 kw=0.0813855 pf=0.92 daily=RU5_DU status=variable vmaxpu=1.5 vminpu=0.92
New Load.BT_227072_M2 bus1=UC227072.1.4 phases=1 conn=Wye model=3 kv=0.219393102 kw=0.0813855 pf=0.92 daily=RU5_DU status=variable vmaxpu=1.5 vminpu=0.92
New Load.BT_218151_M1 bus1=UC218151.1.2.4 phases=1 conn=Delta model=2 kv=0.44 kw=0.000983 pf=0.92 daily=RU4_DU status=variable vmaxpu=1.5 vminpu=0.92
New Load.BT_218151_M2 bus1=UC218151.1.2.4 phases=1 conn=Delta model=3 kv=0.44 kw=0.000983 pf=0.92 daily=RU4_DU status=variable vmaxpu=1.5 vminpu=0.92
New Load.BT_218303_M1 bus1=UC218303.1.4 phases=1 conn=Wye model=2 kv=0.22 kw=0.346447 pf=0.92 daily=RU3_DU status=variable vmaxpu=1.5 vminpu=0.92
New Load.BT_218303_M2 bus1=UC218303.1.4 phases=1 conn=Wye model=3 kv=0.22 kw=0.346447 pf=0.92 daily=RU3_DU status=variable vmaxpu=1.5 vminpu=0.92
New Load.BT_205622_M1 bus1=UC205622.2.4 phases=1 conn=Wye model=2 kv=0.22 kw=0.0197295 pf=0.92 daily=RU5_DU status=variable vmaxpu=1.5 vminpu=0.92
New Load.BT_205622_M2 bus1=UC205622.2.4 phases=1 conn=Wye model=3 kv=0.22 kw=0.0197295 pf=0.92 daily=RU5_DU status=variable vmaxpu=1.5 vminpu=0.92
New Load.BT_233149_M1 bus1=UC233149.1.4 phases=1 conn=Wye model=2 kv=0.22 kw=0.3970635 pf=0.92 daily=RU5_DU status=variable vmaxpu=1.5 vminpu=0.92
New Load.BT_233149_M2 bus1=UC233149.1.4 phases=1 conn=Wye model=3 kv=0.22 kw=0.3970635 pf=0.92 daily=RU5_DU status=variable vmaxpu=1.5 vminpu=0.92
...
